
cwipi 0.8.2 initializing
------------------------

/*---------------------------------------------------------------------------*\
| =========                 |                                                 |
| \\      /  F ield         | OpenFOAM: The Open Source CFD Toolbox           |
|  \\    /   O peration     | Version:  v1712                                 |
|   \\  /    A nd           | Web:      www.OpenFOAM.com                      |
|    \\/     M anipulation  |                                                 |
\*---------------------------------------------------------------------------*/
Build  : v1712
Arch   : "LSB;label=32;scalar=64"
Exec   : cwipiIcoFoam -parallel
Date   : May 04 2022
Time   : 13:13:32
Host   : "alice03"
PID    : 27847
I/O    : uncollated
Case   : /lustre/ahome3/m/ma882/OpenFOAM/Miguel_OpenFOAM_Nektar_API/cavity/CFD
nProcs : 2
Hosts  :
(
    (alice03 2)
)
Pstream initialized with:
    floatTransfer      : 0
    nProcsSimpleSum    : 0
    commsType          : nonBlocking
    polling iterations : 0
trapFpe: Floating point exception trapping enabled (FOAM_SIGFPE).
fileModificationChecking : Monitoring run-time modified files using timeStampMaster (fileModificationSkew 10)
allowSystemOperations : Allowing user-supplied system call operations

// * * * * * * * * * * * * * * * * * * * * * * * * * * * * * * * * * * * * * //
Create time

Create mesh for time = 0


PISO: Operating solver in PISO mode

Reading transportProperties

Reading field p

Reading field U

Reading/calculating face flux field phi


Local application properties

'cwipiFoam' properties
  - Ranks in global MPI_comm : 0 <= ranks <= 1 
  - Int Control Parameter :
   * 'nSendVars' : 3
   * 'receiveTag' : 0
  - Double Control Parameter :
  - String Control Parameter :
   * 'sendFieldNames' : 'u0,v0,w0'

Distant application properties

'FOAM_APE' properties
  - Ranks in global MPI_comm : 2 <= ranks <= 4 
  - Int Control Parameter :
   * 'nRecvVars' : 3
   * 'nSendVars' : 0
   * 'receiveTag' : 18513
  - Double Control Parameter :
  - String Control Parameter :
   * 'recvFieldNames' : 'F_0_u,F_0_v,F_0_w'
   * 'sendFieldNames' : ''


Starting time loop

Exchange Ok
Time = 0.005

Courant Number mean: 0 max: 0
smoothSolver:  Solving for Ux, Initial residual = 1, Final residual = 7.58384e-06, No Iterations 22
smoothSolver:  Solving for Uy, Initial residual = 0, Final residual = 0, No Iterations 0
DICPCG:  Solving for p, Initial residual = 1, Final residual = 0.0493696, No Iterations 25
time step continuity errors : sum local = 0.000330778, global = -1.32349e-20, cumulative = -1.32349e-20
DICPCG:  Solving for p, Initial residual = 0.534162, Final residual = 9.31648e-07, No Iterations 39
time step continuity errors : sum local = 1.05384e-08, global = -2.1242e-19, cumulative = -2.25655e-19
Before wait.
After wait.
ExecutionTime = 0.07 s  ClockTime = 1 s

Exchange Ok
Time = 0.01

Courant Number mean: 0.0976811 max: 0.585672
smoothSolver:  Solving for Ux, Initial residual = 0.148645, Final residual = 8.08008e-06, No Iterations 21
smoothSolver:  Solving for Uy, Initial residual = 0.257288, Final residual = 6.19099e-06, No Iterations 19
DICPCG:  Solving for p, Initial residual = 0.39075, Final residual = 0.0165171, No Iterations 12
time step continuity errors : sum local = 0.000234836, global = -1.04291e-18, cumulative = -1.26856e-18
DICPCG:  Solving for p, Initial residual = 0.315021, Final residual = 9.25715e-07, No Iterations 38
time step continuity errors : sum local = 9.21447e-09, global = 4.40763e-19, cumulative = -8.27801e-19
Before wait.
After wait.
ExecutionTime = 0.08 s  ClockTime = 1 s

Exchange Ok
Time = 0.015

Courant Number mean: 0.144689 max: 0.758514
smoothSolver:  Solving for Ux, Initial residual = 0.0442549, Final residual = 7.129e-06, No Iterations 17
smoothSolver:  Solving for Uy, Initial residual = 0.0933233, Final residual = 8.86661e-06, No Iterations 17
DICPCG:  Solving for p, Initial residual = 0.164867, Final residual = 0.00661544, No Iterations 23
time step continuity errors : sum local = 5.78374e-05, global = 8.58944e-19, cumulative = 3.11434e-20
DICPCG:  Solving for p, Initial residual = 0.117337, Final residual = 8.969e-07, No Iterations 37
time step continuity errors : sum local = 8.3826e-09, global = -3.13129e-19, cumulative = -2.81986e-19
Before wait.
After wait.
ExecutionTime = 0.09 s  ClockTime = 1 s

Exchange Ok
Time = 0.02

Courant Number mean: 0.167384 max: 0.799991
smoothSolver:  Solving for Ux, Initial residual = 0.0243845, Final residual = 6.61917e-06, No Iterations 17
smoothSolver:  Solving for Uy, Initial residual = 0.0471407, Final residual = 7.43821e-06, No Iterations 16
DICPCG:  Solving for p, Initial residual = 0.0585917, Final residual = 0.00198953, No Iterations 25
time step continuity errors : sum local = 1.60496e-05, global = -5.5206e-19, cumulative = -8.34046e-19
DICPCG:  Solving for p, Initial residual = 0.0444018, Final residual = 4.29897e-07, No Iterations 37
time step continuity errors : sum local = 3.51572e-09, global = 1.02876e-18, cumulative = 1.94718e-19
Before wait.
After wait.
ExecutionTime = 0.1 s  ClockTime = 1 s

Exchange Ok
Time = 0.025

Courant Number mean: 0.182113 max: 0.819645
smoothSolver:  Solving for Ux, Initial residual = 0.0149162, Final residual = 6.81433e-06, No Iterations 16
smoothSolver:  Solving for Uy, Initial residual = 0.0301791, Final residual = 8.4219e-06, No Iterations 15
DICPCG:  Solving for p, Initial residual = 0.0377072, Final residual = 0.00168244, No Iterations 11
time step continuity errors : sum local = 1.76466e-05, global = -7.15346e-19, cumulative = -5.20627e-19
DICPCG:  Solving for p, Initial residual = 0.029335, Final residual = 5.06202e-07, No Iterations 36
time step continuity errors : sum local = 4.13418e-09, global = 6.46442e-19, cumulative = 1.25814e-19
Before wait.
After wait.
ExecutionTime = 0.1 s  ClockTime = 1 s

Exchange Ok
Time = 0.03

Courant Number mean: 0.192217 max: 0.83028
smoothSolver:  Solving for Ux, Initial residual = 0.00999112, Final residual = 7.44341e-06, No Iterations 15
smoothSolver:  Solving for Uy, Initial residual = 0.0219086, Final residual = 6.38605e-06, No Iterations 15
DICPCG:  Solving for p, Initial residual = 0.025623, Final residual = 0.000946794, No Iterations 25
time step continuity errors : sum local = 7.74941e-06, global = 1.16881e-19, cumulative = 2.42695e-19
DICPCG:  Solving for p, Initial residual = 0.0191653, Final residual = 4.97525e-07, No Iterations 36
time step continuity errors : sum local = 4.07708e-09, global = -6.14182e-19, cumulative = -3.71487e-19
Before wait.
After wait.
ExecutionTime = 0.11 s  ClockTime = 1 s

Exchange Ok
Time = 0.035

Courant Number mean: 0.19939 max: 0.836823
smoothSolver:  Solving for Ux, Initial residual = 0.0074062, Final residual = 9.2846e-06, No Iterations 14
smoothSolver:  Solving for Uy, Initial residual = 0.0152513, Final residual = 7.68459e-06, No Iterations 14
DICPCG:  Solving for p, Initial residual = 0.017142, Final residual = 0.000575076, No Iterations 25
time step continuity errors : sum local = 4.7303e-06, global = 9.78389e-19, cumulative = 6.06902e-19
DICPCG:  Solving for p, Initial residual = 0.0132751, Final residual = 6.09606e-07, No Iterations 35
time step continuity errors : sum local = 4.96708e-09, global = 2.50718e-19, cumulative = 8.57621e-19
Before wait.
After wait.
ExecutionTime = 0.12 s  ClockTime = 1 s

Exchange Ok
Time = 0.04

Courant Number mean: 0.204638 max: 0.841147
smoothSolver:  Solving for Ux, Initial residual = 0.0054535, Final residual = 7.04433e-06, No Iterations 14
smoothSolver:  Solving for Uy, Initial residual = 0.0114706, Final residual = 5.86102e-06, No Iterations 14
DICPCG:  Solving for p, Initial residual = 0.0130765, Final residual = 0.000633556, No Iterations 10
time step continuity errors : sum local = 6.59461e-06, global = 6.12941e-19, cumulative = 1.47056e-18
DICPCG:  Solving for p, Initial residual = 0.0101473, Final residual = 4.46336e-07, No Iterations 35
time step continuity errors : sum local = 3.65141e-09, global = 3.39558e-19, cumulative = 1.81012e-18
Before wait.
After wait.
ExecutionTime = 0.13 s  ClockTime = 1 s

Exchange Ok
Time = 0.045

Courant Number mean: 0.208551 max: 0.844097
smoothSolver:  Solving for Ux, Initial residual = 0.00400413, Final residual = 8.32544e-06, No Iterations 13
smoothSolver:  Solving for Uy, Initial residual = 0.00899581, Final residual = 7.87805e-06, No Iterations 13
DICPCG:  Solving for p, Initial residual = 0.0100365, Final residual = 0.000438824, No Iterations 22
time step continuity errors : sum local = 3.75356e-06, global = 9.28014e-19, cumulative = 2.73813e-18
DICPCG:  Solving for p, Initial residual = 0.00748746, Final residual = 8.17697e-07, No Iterations 34
time step continuity errors : sum local = 6.6892e-09, global = -3.74217e-19, cumulative = 2.36392e-18
Before wait.
After wait.
ExecutionTime = 0.13 s  ClockTime = 1 s

Exchange Ok
Time = 0.05

Courant Number mean: 0.211515 max: 0.846171
smoothSolver:  Solving for Ux, Initial residual = 0.00316281, Final residual = 6.73109e-06, No Iterations 13
smoothSolver:  Solving for Uy, Initial residual = 0.00665044, Final residual = 5.92619e-06, No Iterations 13
DICPCG:  Solving for p, Initial residual = 0.00697502, Final residual = 0.000287246, No Iterations 11
time step continuity errors : sum local = 3.4144e-06, global = -9.0932e-19, cumulative = 1.4546e-18
DICPCG:  Solving for p, Initial residual = 0.00533016, Final residual = 5.7161e-07, No Iterations 34
time step continuity errors : sum local = 4.68194e-09, global = 9.22555e-19, cumulative = 2.37715e-18
Before wait.
After wait.
ExecutionTime = 0.14 s  ClockTime = 1 s

Exchange Ok
Time = 0.055

Courant Number mean: 0.213817 max: 0.847666
smoothSolver:  Solving for Ux, Initial residual = 0.00236734, Final residual = 8.04535e-06, No Iterations 12
smoothSolver:  Solving for Uy, Initial residual = 0.00536414, Final residual = 8.10339e-06, No Iterations 12
DICPCG:  Solving for p, Initial residual = 0.00615987, Final residual = 0.000156401, No Iterations 22
time step continuity errors : sum local = 1.30524e-06, global = -1.85413e-18, cumulative = 5.23026e-19
DICPCG:  Solving for p, Initial residual = 0.00464447, Final residual = 6.39654e-07, No Iterations 32
time step continuity errors : sum local = 5.24095e-09, global = -8.0129e-19, cumulative = -2.78264e-19
Before wait.
After wait.
ExecutionTime = 0.15 s  ClockTime = 1 s

Exchange Ok
Time = 0.06

Courant Number mean: 0.215619 max: 0.848755
smoothSolver:  Solving for Ux, Initial residual = 0.00188938, Final residual = 6.52215e-06, No Iterations 12
smoothSolver:  Solving for Uy, Initial residual = 0.00401881, Final residual = 6.17579e-06, No Iterations 12
DICPCG:  Solving for p, Initial residual = 0.00420859, Final residual = 0.000175414, No Iterations 11
time step continuity errors : sum local = 2.14889e-06, global = 8.96664e-19, cumulative = 6.184e-19
DICPCG:  Solving for p, Initial residual = 0.0032364, Final residual = 7.47459e-07, No Iterations 33
time step continuity errors : sum local = 6.12408e-09, global = -1.40224e-18, cumulative = -7.83836e-19
Before wait.
After wait.
ExecutionTime = 0.15 s  ClockTime = 1 s

Exchange Ok
Time = 0.065

Courant Number mean: 0.217014 max: 0.849562
smoothSolver:  Solving for Ux, Initial residual = 0.00143163, Final residual = 7.8781e-06, No Iterations 11
smoothSolver:  Solving for Uy, Initial residual = 0.00328006, Final residual = 8.54186e-06, No Iterations 11
DICPCG:  Solving for p, Initial residual = 0.00365124, Final residual = 0.000112454, No Iterations 22
time step continuity errors : sum local = 9.52555e-07, global = 3.39061e-19, cumulative = -4.44775e-19
DICPCG:  Solving for p, Initial residual = 0.00274538, Final residual = 8.08165e-07, No Iterations 31
time step continuity errors : sum local = 6.63574e-09, global = -6.36102e-20, cumulative = -5.08385e-19
Before wait.
After wait.
ExecutionTime = 0.16 s  ClockTime = 1 s

Exchange Ok
Time = 0.07

Courant Number mean: 0.218111 max: 0.850162
smoothSolver:  Solving for Ux, Initial residual = 0.00115568, Final residual = 6.40001e-06, No Iterations 11
smoothSolver:  Solving for Uy, Initial residual = 0.00247243, Final residual = 6.54875e-06, No Iterations 11
DICPCG:  Solving for p, Initial residual = 0.00254893, Final residual = 0.000127241, No Iterations 10
time step continuity errors : sum local = 1.412e-06, global = -4.59333e-19, cumulative = -9.67719e-19
DICPCG:  Solving for p, Initial residual = 0.0019543, Final residual = 7.3122e-07, No Iterations 31
time step continuity errors : sum local = 5.99544e-09, global = 7.66217e-19, cumulative = -2.01501e-19
Before wait.
After wait.
ExecutionTime = 0.17 s  ClockTime = 1 s

Exchange Ok
Time = 0.075

Courant Number mean: 0.218966 max: 0.850614
smoothSolver:  Solving for Ux, Initial residual = 0.000887485, Final residual = 7.8285e-06, No Iterations 10
smoothSolver:  Solving for Uy, Initial residual = 0.00201819, Final residual = 9.06638e-06, No Iterations 10
DICPCG:  Solving for p, Initial residual = 0.00215559, Final residual = 5.92697e-05, No Iterations 22
time step continuity errors : sum local = 5.02529e-07, global = -2.16556e-19, cumulative = -4.18057e-19
DICPCG:  Solving for p, Initial residual = 0.00161868, Final residual = 4.50483e-07, No Iterations 31
time step continuity errors : sum local = 3.70226e-09, global = 1.79043e-18, cumulative = 1.37238e-18
Before wait.
After wait.
ExecutionTime = 0.18 s  ClockTime = 1 s

Exchange Ok
Time = 0.08

Courant Number mean: 0.219637 max: 0.850959
smoothSolver:  Solving for Ux, Initial residual = 0.000716319, Final residual = 6.33775e-06, No Iterations 10
smoothSolver:  Solving for Uy, Initial residual = 0.00153946, Final residual = 7.02346e-06, No Iterations 10
DICPCG:  Solving for p, Initial residual = 0.00155925, Final residual = 7.6986e-05, No Iterations 10
time step continuity errors : sum local = 8.33143e-07, global = -6.14843e-19, cumulative = 7.57532e-19
DICPCG:  Solving for p, Initial residual = 0.00119872, Final residual = 8.29498e-07, No Iterations 30
time step continuity errors : sum local = 6.79427e-09, global = -7.63488e-20, cumulative = 6.81183e-19
Before wait.
After wait.
ExecutionTime = 0.18 s  ClockTime = 1 s

Exchange Ok
Time = 0.085

Courant Number mean: 0.220165 max: 0.851221
smoothSolver:  Solving for Ux, Initial residual = 0.000553281, Final residual = 7.80659e-06, No Iterations 9
smoothSolver:  Solving for Uy, Initial residual = 0.00125568, Final residual = 9.724e-06, No Iterations 9
DICPCG:  Solving for p, Initial residual = 0.00130357, Final residual = 3.0362e-05, No Iterations 22
time step continuity errors : sum local = 2.54285e-07, global = -6.96238e-19, cumulative = -1.50547e-20
DICPCG:  Solving for p, Initial residual = 0.000981974, Final residual = 6.65724e-07, No Iterations 27
time step continuity errors : sum local = 5.57275e-09, global = -3.11268e-19, cumulative = -3.26323e-19
Before wait.
After wait.
ExecutionTime = 0.19 s  ClockTime = 1 s

Exchange Ok
Time = 0.09

Courant Number mean: 0.220582 max: 0.851423
smoothSolver:  Solving for Ux, Initial residual = 0.000447088, Final residual = 6.31732e-06, No Iterations 9
smoothSolver:  Solving for Uy, Initial residual = 0.000964991, Final residual = 7.58238e-06, No Iterations 9
DICPCG:  Solving for p, Initial residual = 0.000968942, Final residual = 4.65656e-05, No Iterations 10
time step continuity errors : sum local = 5.03844e-07, global = 6.36598e-19, cumulative = 3.10275e-19
DICPCG:  Solving for p, Initial residual = 0.000746445, Final residual = 4.62962e-07, No Iterations 30
time step continuity errors : sum local = 3.78853e-09, global = -6.36102e-19, cumulative = -3.25826e-19
Before wait.
After wait.
ExecutionTime = 0.2 s  ClockTime = 1 s

Exchange Ok
Time = 0.095

Courant Number mean: 0.22091 max: 0.851578
smoothSolver:  Solving for Ux, Initial residual = 0.000346782, Final residual = 7.81711e-06, No Iterations 8
smoothSolver:  Solving for Uy, Initial residual = 0.000787923, Final residual = 6.11065e-06, No Iterations 9
DICPCG:  Solving for p, Initial residual = 0.000805657, Final residual = 1.76471e-05, No Iterations 22
time step continuity errors : sum local = 1.44576e-07, global = -1.93891e-19, cumulative = -5.19718e-19
DICPCG:  Solving for p, Initial residual = 0.000610598, Final residual = 4.02015e-07, No Iterations 30
time step continuity errors : sum local = 3.3011e-09, global = 7.2461e-20, cumulative = -4.47257e-19
Before wait.
After wait.
ExecutionTime = 0.21 s  ClockTime = 1 s

Exchange Ok
Time = 0.1

Courant Number mean: 0.221169 max: 0.851699
smoothSolver:  Solving for Ux, Initial residual = 0.000280969, Final residual = 6.33887e-06, No Iterations 8
smoothSolver:  Solving for Uy, Initial residual = 0.000607473, Final residual = 8.20658e-06, No Iterations 8
DICPCG:  Solving for p, Initial residual = 0.00060597, Final residual = 2.81653e-05, No Iterations 10
time step continuity errors : sum local = 3.12091e-07, global = -4.98045e-19, cumulative = -9.45302e-19
DICPCG:  Solving for p, Initial residual = 0.000467068, Final residual = 7.71609e-07, No Iterations 29
time step continuity errors : sum local = 6.31997e-09, global = -5.6149e-19, cumulative = -1.50679e-18
Before wait.
After wait.
ExecutionTime = 0.21 s  ClockTime = 1 s

Exchange Ok
Time = 0.105

Courant Number mean: 0.221374 max: 0.851792
smoothSolver:  Solving for Ux, Initial residual = 0.000218487, Final residual = 7.85916e-06, No Iterations 7
smoothSolver:  Solving for Uy, Initial residual = 0.000497688, Final residual = 6.62656e-06, No Iterations 8
DICPCG:  Solving for p, Initial residual = 0.000502021, Final residual = 1.12137e-05, No Iterations 22
time step continuity errors : sum local = 9.20388e-08, global = 3.26736e-20, cumulative = -1.47412e-18
DICPCG:  Solving for p, Initial residual = 0.000382429, Final residual = 8.82795e-07, No Iterations 29
time step continuity errors : sum local = 7.20331e-09, global = -6.77875e-19, cumulative = -2.15199e-18
Before wait.
After wait.
ExecutionTime = 0.21 s  ClockTime = 1 s

Exchange Ok
Time = 0.11

Courant Number mean: 0.221535 max: 0.851865
smoothSolver:  Solving for Ux, Initial residual = 0.000177847, Final residual = 6.40032e-06, No Iterations 7
smoothSolver:  Solving for Uy, Initial residual = 0.000384132, Final residual = 8.89185e-06, No Iterations 7
DICPCG:  Solving for p, Initial residual = 0.000375532, Final residual = 1.64768e-05, No Iterations 10
time step continuity errors : sum local = 1.84531e-07, global = -4.07304e-19, cumulative = -2.5593e-18
DICPCG:  Solving for p, Initial residual = 0.000289829, Final residual = 6.4869e-07, No Iterations 24
time step continuity errors : sum local = 5.35291e-09, global = -1.2033e-18, cumulative = -3.7626e-18
Before wait.
After wait.
ExecutionTime = 0.23 s  ClockTime = 1 s

Exchange Ok
Time = 0.115

Courant Number mean: 0.221662 max: 0.851922
smoothSolver:  Solving for Ux, Initial residual = 0.000138664, Final residual = 7.96554e-06, No Iterations 6
smoothSolver:  Solving for Uy, Initial residual = 0.000315391, Final residual = 7.21544e-06, No Iterations 7
DICPCG:  Solving for p, Initial residual = 0.00031725, Final residual = 1.42718e-05, No Iterations 21
time step continuity errors : sum local = 1.16667e-07, global = 8.82767e-19, cumulative = -2.87983e-18
DICPCG:  Solving for p, Initial residual = 0.000243878, Final residual = 5.3441e-07, No Iterations 29
time step continuity errors : sum local = 4.36476e-09, global = 7.61833e-20, cumulative = -2.80365e-18
Before wait.
After wait.
ExecutionTime = 0.23 s  ClockTime = 1 s

Exchange Ok
Time = 0.12

Courant Number mean: 0.221763 max: 0.851966
smoothSolver:  Solving for Ux, Initial residual = 0.000113469, Final residual = 6.51879e-06, No Iterations 6
smoothSolver:  Solving for Uy, Initial residual = 0.000243947, Final residual = 9.69043e-06, No Iterations 6
DICPCG:  Solving for p, Initial residual = 0.000238203, Final residual = 1.1501e-05, No Iterations 10
time step continuity errors : sum local = 1.22355e-07, global = -3.15487e-19, cumulative = -3.11913e-18
DICPCG:  Solving for p, Initial residual = 0.000184369, Final residual = 6.39044e-07, No Iterations 27
time step continuity errors : sum local = 5.2651e-09, global = -1.35724e-18, cumulative = -4.47637e-18
Before wait.
After wait.
ExecutionTime = 0.24 s  ClockTime = 1 s

Exchange Ok
Time = 0.125

Courant Number mean: 0.221842 max: 0.852
smoothSolver:  Solving for Ux, Initial residual = 8.87812e-05, Final residual = 8.15598e-06, No Iterations 5
smoothSolver:  Solving for Uy, Initial residual = 0.000201087, Final residual = 7.90461e-06, No Iterations 6
DICPCG:  Solving for p, Initial residual = 0.000205116, Final residual = 4.04059e-06, No Iterations 22
time step continuity errors : sum local = 3.34202e-08, global = -5.53218e-19, cumulative = -5.02959e-18
DICPCG:  Solving for p, Initial residual = 0.000161032, Final residual = 9.02145e-07, No Iterations 27
time step continuity errors : sum local = 7.49961e-09, global = 2.81986e-19, cumulative = -4.7476e-18
Before wait.
After wait.
ExecutionTime = 0.25 s  ClockTime = 1 s

Exchange Ok
Time = 0.13

Courant Number mean: 0.221905 max: 0.852028
smoothSolver:  Solving for Ux, Initial residual = 7.29389e-05, Final residual = 6.70684e-06, No Iterations 5
smoothSolver:  Solving for Uy, Initial residual = 0.000156597, Final residual = 6.22466e-06, No Iterations 6
DICPCG:  Solving for p, Initial residual = 0.000157443, Final residual = 7.25731e-06, No Iterations 10
time step continuity errors : sum local = 7.1502e-08, global = 7.4529e-20, cumulative = -4.67307e-18
DICPCG:  Solving for p, Initial residual = 0.000124299, Final residual = 5.10192e-07, No Iterations 27
time step continuity errors : sum local = 4.18961e-09, global = 5.67777e-19, cumulative = -4.1053e-18
Before wait.
After wait.
ExecutionTime = 0.26 s  ClockTime = 1 s

Exchange Ok
Time = 0.135

Courant Number mean: 0.221955 max: 0.852049
smoothSolver:  Solving for Ux, Initial residual = 5.73953e-05, Final residual = 8.47443e-06, No Iterations 4
smoothSolver:  Solving for Uy, Initial residual = 0.000128868, Final residual = 8.68178e-06, No Iterations 5
DICPCG:  Solving for p, Initial residual = 0.000133104, Final residual = 6.11631e-06, No Iterations 21
time step continuity errors : sum local = 5.02199e-08, global = 1.02322e-18, cumulative = -3.08207e-18
DICPCG:  Solving for p, Initial residual = 0.000108249, Final residual = 7.87431e-07, No Iterations 23
time step continuity errors : sum local = 6.44399e-09, global = -2.46334e-19, cumulative = -3.32841e-18
Before wait.
After wait.
ExecutionTime = 0.26 s  ClockTime = 1 s

Exchange Ok
Time = 0.14

Courant Number mean: 0.221994 max: 0.852066
smoothSolver:  Solving for Ux, Initial residual = 4.76278e-05, Final residual = 7.02633e-06, No Iterations 4
smoothSolver:  Solving for Uy, Initial residual = 0.000101379, Final residual = 6.88503e-06, No Iterations 5
DICPCG:  Solving for p, Initial residual = 0.000104397, Final residual = 3.8498e-06, No Iterations 10
time step continuity errors : sum local = 3.4556e-08, global = -8.37024e-19, cumulative = -4.16543e-18
DICPCG:  Solving for p, Initial residual = 8.44402e-05, Final residual = 9.09115e-07, No Iterations 14
time step continuity errors : sum local = 1.08732e-08, global = -2.34837e-19, cumulative = -4.40027e-18
Before wait.
After wait.
ExecutionTime = 0.27 s  ClockTime = 1 s

Exchange Ok
Time = 0.145

Courant Number mean: 0.222026 max: 0.852079
smoothSolver:  Solving for Ux, Initial residual = 3.83129e-05, Final residual = 9.08623e-06, No Iterations 3
smoothSolver:  Solving for Uy, Initial residual = 8.25696e-05, Final residual = 9.57726e-06, No Iterations 4
DICPCG:  Solving for p, Initial residual = 9.06887e-05, Final residual = 3.64993e-06, No Iterations 8
time step continuity errors : sum local = 3.35876e-08, global = -1.13233e-18, cumulative = -5.5326e-18
DICPCG:  Solving for p, Initial residual = 7.73494e-05, Final residual = 5.10232e-07, No Iterations 14
time step continuity errors : sum local = 5.80321e-09, global = 6.62324e-19, cumulative = -4.87027e-18
Before wait.
After wait.
ExecutionTime = 0.28 s  ClockTime = 1 s

Exchange Ok
Time = 0.15

Courant Number mean: 0.22205 max: 0.85209
smoothSolver:  Solving for Ux, Initial residual = 3.20845e-05, Final residual = 7.58756e-06, No Iterations 3
smoothSolver:  Solving for Uy, Initial residual = 6.65459e-05, Final residual = 7.72776e-06, No Iterations 4
DICPCG:  Solving for p, Initial residual = 7.39128e-05, Final residual = 3.09697e-06, No Iterations 8
time step continuity errors : sum local = 2.84673e-08, global = -1.33209e-18, cumulative = -6.20237e-18
DICPCG:  Solving for p, Initial residual = 6.21828e-05, Final residual = 8.88888e-07, No Iterations 22
time step continuity errors : sum local = 7.30292e-09, global = 1.81153e-19, cumulative = -6.02121e-18
Before wait.
After wait.
ExecutionTime = 0.29 s  ClockTime = 1 s

Exchange Ok
Time = 0.155

Courant Number mean: 0.22207 max: 0.852098
smoothSolver:  Solving for Ux, Initial residual = 2.58504e-05, Final residual = 9.88578e-06, No Iterations 2
smoothSolver:  Solving for Uy, Initial residual = 5.55386e-05, Final residual = 6.40936e-06, No Iterations 4
DICPCG:  Solving for p, Initial residual = 8.87614e-05, Final residual = 2.5529e-06, No Iterations 21
time step continuity errors : sum local = 2.09593e-08, global = -8.78797e-19, cumulative = -6.90001e-18
DICPCG:  Solving for p, Initial residual = 8.05833e-05, Final residual = 9.3359e-07, No Iterations 25
time step continuity errors : sum local = 7.72911e-09, global = -3.81661e-19, cumulative = -7.28167e-18
Before wait.
After wait.
ExecutionTime = 0.29 s  ClockTime = 1 s

Exchange Ok
Time = 0.16

Courant Number mean: 0.222085 max: 0.852105
smoothSolver:  Solving for Ux, Initial residual = 2.20918e-05, Final residual = 8.47391e-06, No Iterations 2
smoothSolver:  Solving for Uy, Initial residual = 4.49477e-05, Final residual = 8.86243e-06, No Iterations 3
DICPCG:  Solving for p, Initial residual = 5.30074e-05, Final residual = 2.10953e-06, No Iterations 11
time step continuity errors : sum local = 2.13908e-08, global = -5.55038e-19, cumulative = -7.83671e-18
DICPCG:  Solving for p, Initial residual = 4.74896e-05, Final residual = 9.14081e-07, No Iterations 12
time step continuity errors : sum local = 7.90107e-09, global = 1.25012e-18, cumulative = -6.58659e-18
Before wait.
After wait.
ExecutionTime = 0.3 s  ClockTime = 1 s

Exchange Ok
Time = 0.165

Courant Number mean: 0.222097 max: 0.852109
smoothSolver:  Solving for Ux, Initial residual = 1.85632e-05, Final residual = 7.08766e-06, No Iterations 2
smoothSolver:  Solving for Uy, Initial residual = 3.76647e-05, Final residual = 7.42779e-06, No Iterations 3
DICPCG:  Solving for p, Initial residual = 4.64467e-05, Final residual = 2.06138e-06, No Iterations 10
time step continuity errors : sum local = 1.70159e-08, global = -4.53295e-20, cumulative = -6.63192e-18
DICPCG:  Solving for p, Initial residual = 4.13615e-05, Final residual = 8.38146e-07, No Iterations 11
time step continuity errors : sum local = 8.63371e-09, global = -2.52869e-19, cumulative = -6.88479e-18
Before wait.
After wait.
ExecutionTime = 0.31 s  ClockTime = 1 s

Exchange Ok
Time = 0.17

Courant Number mean: 0.222107 max: 0.852114
smoothSolver:  Solving for Ux, Initial residual = 1.55234e-05, Final residual = 9.58096e-06, No Iterations 1
smoothSolver:  Solving for Uy, Initial residual = 3.15841e-05, Final residual = 6.2244e-06, No Iterations 3
DICPCG:  Solving for p, Initial residual = 6.82438e-05, Final residual = 2.88584e-06, No Iterations 11
time step continuity errors : sum local = 3.22835e-08, global = -1.51457e-19, cumulative = -7.03625e-18
DICPCG:  Solving for p, Initial residual = 6.58697e-05, Final residual = 6.0964e-07, No Iterations 12
time step continuity errors : sum local = 6.38648e-09, global = -5.26914e-19, cumulative = -7.56316e-18
Before wait.
After wait.
ExecutionTime = 0.32 s  ClockTime = 1 s

Exchange Ok
Time = 0.175

Courant Number mean: 0.222115 max: 0.852117
smoothSolver:  Solving for Ux, Initial residual = 1.40553e-05, Final residual = 8.65233e-06, No Iterations 1
smoothSolver:  Solving for Uy, Initial residual = 2.5871e-05, Final residual = 8.64109e-06, No Iterations 2
DICPCG:  Solving for p, Initial residual = 3.91094e-05, Final residual = 1.06827e-06, No Iterations 11
time step continuity errors : sum local = 1.10179e-08, global = -3.5486e-19, cumulative = -7.91802e-18
DICPCG:  Solving for p, Initial residual = 3.61057e-05, Final residual = 9.99637e-07, No Iterations 12
time step continuity errors : sum local = 1.15788e-08, global = 1.01288e-18, cumulative = -6.90514e-18
Before wait.
After wait.
ExecutionTime = 0.32 s  ClockTime = 1 s

Exchange Ok
Time = 0.18

Courant Number mean: 0.222121 max: 0.852119
smoothSolver:  Solving for Ux, Initial residual = 1.18166e-05, Final residual = 7.30122e-06, No Iterations 1
smoothSolver:  Solving for Uy, Initial residual = 2.30376e-05, Final residual = 7.70889e-06, No Iterations 2
DICPCG:  Solving for p, Initial residual = 3.51401e-05, Final residual = 1.28687e-06, No Iterations 10
time step continuity errors : sum local = 1.08763e-08, global = -1.31356e-19, cumulative = -7.03649e-18
DICPCG:  Solving for p, Initial residual = 3.30281e-05, Final residual = 7.88162e-07, No Iterations 11
time step continuity errors : sum local = 9.02494e-09, global = -9.76156e-19, cumulative = -8.01265e-18
Before wait.
After wait.
ExecutionTime = 0.33 s  ClockTime = 1 s

Exchange Ok
Time = 0.185

Courant Number mean: 0.222126 max: 0.852121
smoothSolver:  Solving for Ux, Initial residual = 1.03611e-05, Final residual = 6.38833e-06, No Iterations 1
smoothSolver:  Solving for Uy, Initial residual = 1.97597e-05, Final residual = 6.61875e-06, No Iterations 2
DICPCG:  Solving for p, Initial residual = 3.04228e-05, Final residual = 1.07819e-06, No Iterations 10
time step continuity errors : sum local = 1.00209e-08, global = 1.20876e-18, cumulative = -6.80389e-18
DICPCG:  Solving for p, Initial residual = 2.84245e-05, Final residual = 9.41796e-07, No Iterations 11
time step continuity errors : sum local = 1.07947e-08, global = 1.85619e-19, cumulative = -6.61827e-18
Before wait.
After wait.
ExecutionTime = 0.34 s  ClockTime = 1 s

Exchange Ok
Time = 0.19

Courant Number mean: 0.22213 max: 0.852123
smoothSolver:  Solving for Ux, Initial residual = 8.95333e-06, Final residual = 8.95333e-06, No Iterations 0
smoothSolver:  Solving for Uy, Initial residual = 1.71658e-05, Final residual = 9.87965e-06, No Iterations 1
DICPCG:  Solving for p, Initial residual = 3.47627e-05, Final residual = 1.73492e-06, No Iterations 9
time step continuity errors : sum local = 1.74116e-08, global = 4.32946e-19, cumulative = -6.18533e-18
DICPCG:  Solving for p, Initial residual = 3.50272e-05, Final residual = 9.70511e-07, No Iterations 9
time step continuity errors : sum local = 8.69518e-09, global = 7.27423e-19, cumulative = -5.4579e-18
Before wait.
After wait.
ExecutionTime = 0.35 s  ClockTime = 1 s

Exchange Ok
Time = 0.195

Courant Number mean: 0.222133 max: 0.852124
smoothSolver:  Solving for Ux, Initial residual = 8.60713e-06, Final residual = 8.60713e-06, No Iterations 0
smoothSolver:  Solving for Uy, Initial residual = 1.52273e-05, Final residual = 8.67475e-06, No Iterations 1
DICPCG:  Solving for p, Initial residual = 3.14161e-05, Final residual = 9.5326e-07, No Iterations 9
time step continuity errors : sum local = 1.04853e-08, global = -1.22357e-18, cumulative = -6.68147e-18
DICPCG:  Solving for p, Initial residual = 3.13614e-05, Final residual = 8.03123e-07, No Iterations 9
time step continuity errors : sum local = 7.67877e-09, global = 3.21029e-19, cumulative = -6.36044e-18
Before wait.
After wait.
ExecutionTime = 0.35 s  ClockTime = 1 s

Exchange Ok
Time = 0.2

Courant Number mean: 0.222135 max: 0.852125
smoothSolver:  Solving for Ux, Initial residual = 7.99096e-06, Final residual = 7.99096e-06, No Iterations 0
smoothSolver:  Solving for Uy, Initial residual = 1.38152e-05, Final residual = 7.86031e-06, No Iterations 1
DICPCG:  Solving for p, Initial residual = 2.86696e-05, Final residual = 9.81382e-07, No Iterations 9
time step continuity errors : sum local = 9.76985e-09, global = 1.40315e-18, cumulative = -4.95729e-18
DICPCG:  Solving for p, Initial residual = 2.86272e-05, Final residual = 8.57857e-07, No Iterations 9
time step continuity errors : sum local = 8.58978e-09, global = -4.24013e-19, cumulative = -5.38131e-18
Before wait.
After wait.
ExecutionTime = 0.37 s  ClockTime = 1 s

Exchange Ok
Time = 0.205

Courant Number mean: 0.222137 max: 0.852126
smoothSolver:  Solving for Ux, Initial residual = 7.39278e-06, Final residual = 7.39278e-06, No Iterations 0
smoothSolver:  Solving for Uy, Initial residual = 1.25898e-05, Final residual = 7.14421e-06, No Iterations 1
DICPCG:  Solving for p, Initial residual = 2.62477e-05, Final residual = 6.93542e-07, No Iterations 9
time step continuity errors : sum local = 6.73116e-09, global = -1.89755e-19, cumulative = -5.57106e-18
DICPCG:  Solving for p, Initial residual = 2.62535e-05, Final residual = 8.24478e-07, No Iterations 9
time step continuity errors : sum local = 8.73207e-09, global = -1.24168e-18, cumulative = -6.81274e-18
Before wait.
After wait.
ExecutionTime = 0.37 s  ClockTime = 1 s

Exchange Ok
Time = 0.21

